LAMMPS (7 Aug 2019)
#MODIFIED EMD Armchair s=3500, p=100 Bilayer Graphene

dimension 3

units metal

processors * * 1

boundary p p p

neighbor 0.3 bin
neigh_modify    	delay 0 check yes

#define variables

variable T equal 300.0

variable V equal lx*ly*6.7  # 3.35/2 (1st layer's bottom edge to center) + 3.35 (1st layer's center to 2nd layer's center) + 3.35/2 (2nd layer's center to top edge)

variable dt equal 0.0001

variable Nevery equal 3500

variable Nrepeat equal 100

variable Nfreq equal 350000

#convert from LAMMPS metal units to SI units

variable kB equal 1.3806504e-23

variable eV2J equal 1.602177e-19

variable A2m equal 1.0e-10

variable ps2s equal 1.0e-12

variable convert equal 1.602177e-19*1.602177e-19/1e-12/1e-10

#define lattice

atom_style atomic

read_data nd5.086aa_3.data
  orthogonal box = (55.3654 -11.9533 -20) to (166.17 83.8623 20)
  reading atoms ...
  9248 atoms

#define interatomic potentials

pair_style			airebo 3 1 0
pair_coeff 			* * CH.airebo C H
Reading potential file CH.airebo with DATE: 2011-10-25

region scv block INF INF INF INF INF INF
group cvatom dynamic all region scv every 1
dynamic group cvatom defined

dump mini all xyz 5000 minimize.xyz

#define thermo variable settings

timestep 0.0001

thermo_style    	custom step time temp press pxx pyy pzz pe ke etotal vol lx ly lz
thermo          	1000
thermo_modify   	lost error

# ======= minimization =======
min_style		cg
minimize		0 1e-10 200000 400000
  update every 1 steps, delay 0 steps, check yes
Step Time Temp Press Pxx Pyy Pzz PotEng KinEng TotEng Volume Lx Ly Lz
0            0            0    41162.251    38296.245    40520.788    44669.721   -60656.572            0   -60656.572    424670.82    110.80419    95.815603           40
Loop time of 28.8494 on 32 procs for 1641 steps with 9248 atoms

Minimization stats:
  Stopping criterion = force tolerance
  Energy initial, next-to-last, final =
  Force two-norm initial, final = 1448.63 9.91002e-11
  Force max component initial, final = 57.6448 4.81857e-12
  Final line search alpha, max atom move = 1 4.81857e-12
  Iterations, force evaluations = 1641 3280

fix noCOM all recenter INIT INIT INIT

#initialize velocities

velocity all create $T 242752 mom yes rot yes dist gaussian units box
velocity all create 300 242752 mom yes rot yes dist gaussian units box

# ======= thermal equilibration =======

fix				NVE all nve
fix				ts all temp/rescale 1 $T $T $(100.0*dt) 1.0
fix				ts all temp/rescale 1 300 $T $(100.0*dt) 1.0
fix				ts all temp/rescale 1 300 300 $(100.0*dt) 1.0
fix				ts all temp/rescale 1 300 300 0.010000000000000000208 1.0
run				120000
Step Time Temp Press Pxx Pyy Pzz PotEng KinEng TotEng Volume Lx Ly Lz
1641            0          300    -4535.298   -8135.5342   -6371.1692     900.8094   -64991.621    358.58057    -64633.04    424670.82    110.80419    95.815603           40
Averages over the last 61 of 122 rows, steps 62000 to 121641:
Temp Press Pxx Pyy Pzz PotEng KinEng TotEng Volume Lx Ly Lz
300 -3675.48 -6418.36 -4599.79 -8.27986 -64628.7 358.581 -64270.1 424671 110.804 95.8156 40
Loop time of 925.924 on 32 procs for 120000 steps with 9248 atoms

unfix			ts
unfix			NVE

fix 1 all nvt temp $T $T $(100.0*dt) drag 2.0
fix 1 all nvt temp 300 $T $(100.0*dt) drag 2.0
fix 1 all nvt temp 300 300 $(100.0*dt) drag 2.0
fix 1 all nvt temp 300 300 0.010000000000000000208 drag 2.0
run 120000
Step Time Temp Press Pxx Pyy Pzz PotEng KinEng TotEng Volume Lx Ly Lz
121641           12          300   -3669.2585   -6630.0657   -4437.7025    59.992569   -64622.365    358.58057   -64263.784    424670.82    110.80419    95.815603           40
Averages over the last 61 of 122 rows, steps 182000 to 241641:
Temp Press Pxx Pyy Pzz PotEng KinEng TotEng Volume Lx Ly Lz
299.955 -3587.97 -6303.33 -4450 -10.5836 -64628.9 358.527 -64270.4 424671 110.804 95.8156 40
Loop time of 866.677 on 32 procs for 120000 steps with 9248 atoms

unfix 1

fix 1 all nve
run 50000
Step Time Temp Press Pxx Pyy Pzz PotEng KinEng TotEng Volume Lx Ly Lz
241641           24    300.25914   -3565.8185    -6548.886    -4345.688    197.11863   -64628.589     358.8903   -64269.699    424670.82    110.80419    95.815603           40
Averages over the last 26 of 52 rows, steps 267000 to 291641:
Temp Press Pxx Pyy Pzz PotEng KinEng TotEng Volume Lx Ly Lz
300.826 -3584.28 -6273.82 -4459.94 -19.0857 -64629.3 359.568 -64269.7 424671 110.804 95.8156 40
Loop time of 360.329 on 32 procs for 50000 steps with 9248 atoms

unfix 1
unfix noCOM
undump mini

dump emd all xyz 100000 emd.xyz

fix 1 all nve

#thermal conductivity calculation

reset_timestep 0

thermo 350000

compute myKE all ke/atom

compute myPE all pe/atom

compute myStress all stress/atom/local scv NULL pair
CV0 defined: region no=0, id=scv, range -1e+20 <= z <=1e+20

compute flux all heat/flux myKE myPE myStress

variable Jx equal c_flux[1]/$V
variable Jx equal c_flux[1]/71132.361921731

variable Jy equal c_flux[2]/$V
variable Jy equal c_flux[2]/71132.361921731

variable Jz equal c_flux[3]/$V
variable Jz equal c_flux[3]/71132.361921731

variable t equal step*0.0001/1000

dump 2 all xyz 1000 emd.xyz
#fix 1 all nve
fix JJ all ave/correlate 3500 100 350000 	c_flux[1] c_flux[2] c_flux[3] type auto file J0Jt.data ave running

variable scale equal 2.566971139329e-16/1.3806504e-23/300/300/71132.361921731*3500*0.0001

variable k11 equal trap(f_JJ[3])*0.00101647234704611

variable k22 equal trap(f_JJ[4])*0.00101647234704611

variable k33 equal trap(f_JJ[5])*0.00101647234704611

variable k equal (v_k11+v_k22)/2.0

variable kall equal (v_k11+v_k22+v_k33)/3.0

thermo_style custom step temp press v_Jx v_Jy v_Jz v_k11 v_k22 v_k33 v_k v_kall vol pe ke fnorm

restart         5250000 tmp.restart

run 52500000
Step Temp Press v_Jx v_Jy v_Jz v_k11 v_k22 v_k33 v_k v_kall Volume PotEng KinEng Fnorm
0    301.44275   -3436.5993 0.0045963028 -0.0026702384 0.0017940883    54.327197     18.33581      8.27728    36.331504    26.980096    424670.82   -64630.004    360.30504    191.39131
Averages over the last 76 of 151 rows, steps 26250000 to 52500000:
Temp Press v_Jx v_Jy v_Jz v_k11 v_k22 v_k33 v_k v_kall Volume PotEng KinEng Fnorm
299.844 -3586.93 0.00106541 -0.000712269 0.000720868 296.282 227.339 408.8 261.81 310.807 424671 -64627.8 358.394 190.783
Loop time of 427977 on 32 procs for 52500000 steps with 9248 atoms

print "average thermal conductivity: $k [W/mK] @ $T K"
average thermal conductivity: 250.621989732454 [W/mK] @ 300 K
